  246
cell: 29.595957     0.000000     0.000000   -14.798098    25.630859     0.000000    0.000000     0.000000    35.756898 
C     16.168001     1.429000     0.083000     0.097106
C     15.899001     2.197000    34.677003    -0.218590
C     16.050001     3.601000    34.654002     0.250975
C     16.371001     4.260000     0.100000    -0.327573
C     16.599001     3.549000     1.296000     0.250503
C     16.553001     2.138000     1.252000    -0.222831
H     15.579001     1.741000    33.821003     0.140219
H     16.806001     1.629000     2.101000     0.140292
H     16.439001     5.283000     0.106000     0.122996
C     16.035098    -0.004857     0.084000     0.098643
C      1.463000    24.854002    34.670003    -0.227347
C      1.274000    23.455002    34.647002     0.251798
C      0.953000    22.801002     0.097000    -0.328160
C      0.764000    23.515002     1.298000     0.252788
C      0.854000    24.924002     1.257000    -0.226274
H      1.771000    25.305002    33.806003     0.148409
H      0.850000    21.782002     0.099000     0.123547
H      0.619000    25.438002     2.107000     0.142135
N      0.534000    22.808002     2.453000    -0.356854
H      0.063000    21.959002     2.349000     0.280789
N      1.351000    22.712002    33.497002    -0.357289
H      1.714000    21.812001    33.607002     0.275970
N     15.926001     4.342000    33.507003    -0.365690
H     15.570001     5.243000    33.624002     0.286448
N     16.812001     4.260000     2.452000    -0.356895
H     17.264001     5.120000     2.351000     0.280611
C     -6.808001    13.219001    23.909002     0.097196
C     22.247002    12.617001    22.742002    -0.220859
C     20.949002    12.061001    22.718002     0.250799
C     20.219002    12.012001    23.923002    -0.328224
C     20.730002    12.550001    25.121002     0.250316
C     -7.612000    13.198001    25.080002    -0.223359
H     -6.798000    12.571001    21.883002     0.142049
H     -7.292001    13.666001    25.929002     0.141364
H     19.294001    11.572001    23.926002     0.123402
C     -5.500001    13.823001    23.908002     0.097818
C     -4.958000    14.421001    22.740002    -0.222901
C     -3.659000    14.974001    22.715002     0.252343
C     -2.928000    15.025001    23.919002    -0.329201
C     -3.441000    14.492001    25.119002     0.251569
C     -4.696000    13.847001    25.080002    -0.225250
H     -5.509000    14.466001    21.881002     0.142604
H     -2.003000    15.464001    23.921002     0.124342
H     -5.018001    13.383001    25.931002     0.144029
N     -2.717000    14.666001    26.273002    -0.356490
H     -1.745000    14.692001    26.175002     0.281537
N     -3.071000    15.438001    21.566002    -0.365614
H     -2.469000    16.197001    21.678002     0.285300
N     20.362002    11.596001    21.568002    -0.367346
H     19.766002    10.834001    21.685002     0.286995
N     20.007002    12.381001    26.277002    -0.354447
H     19.036002    12.354001    26.174002     0.279689
C      9.228001    13.105001    11.991001     0.098522
C     10.011001    12.931001    10.819001    -0.221074
C     11.138001    12.081001    10.791001     0.250656
C     11.551001    11.474001    11.994001    -0.327872
C     10.838001    11.654001    13.197001     0.251087
C      9.652001    12.420001    13.161001    -0.222979
H      9.772001    13.431001     9.961001     0.141722
H      9.092001    12.468001    14.014001     0.140189
H     12.392001    10.889001    11.995001     0.123965
C      8.055001    13.942001    11.997001     0.097839
C      7.258000    14.113001    10.835001    -0.221233
C      6.133000    14.966001    10.817001     0.252406
C      5.732000    15.574001    12.023001    -0.329508
C      6.459000    15.396001    13.218001     0.251732
C      7.644001    14.631001    13.170001    -0.223902
H      7.487001    13.611001     9.975001     0.141409
H      4.892000    16.160001    12.032001     0.123598
H      8.214000    14.585001    14.017001     0.141051
N      5.961000    15.942001    14.377001    -0.356582
H      5.450000    16.768001    14.277001     0.280246
N      5.433000    15.250001     9.672001    -0.365059
H      4.477000    15.404001     9.788001     0.285751
N     11.829001    11.801001     9.639001    -0.365116
H     12.788001    11.665001     9.754001     0.286207
N     11.351001    11.114001    14.350001    -0.353245
H     11.860001    10.285001    14.251001     0.279921
C      5.301000    16.745001     7.759001    -0.004773
C      5.888000    17.978001     7.387001    -0.234431
C      5.161001    18.984001     6.707000     0.259058
C      3.793000    18.738001     6.394001    -0.038955
C      3.216000    17.488002     6.709001    -0.141199
C      3.960000    16.506001     7.383001    -0.191464
H      2.236000    17.295001     6.483001     0.124588
H      3.503000    15.621001     7.617001     0.108156
C      2.978000    19.723002     5.779000    -0.036893
C      2.716000    19.584002     4.399000    -0.132306
C      2.090000    20.615001     3.684000    -0.183214
C      1.711000    21.814002     4.329000    -0.006102
C      1.942000    21.935002     5.717000    -0.250101
C      2.558000    20.900001     6.463000     0.261351
H      3.048000    18.762002     3.884000     0.122478
H      2.004000    20.515002     2.669000     0.104646
H      1.686000    22.808002     6.188000     0.137628
H      6.854001    18.177001     7.663000     0.135882
N      5.799001    20.145002     6.388001    -0.647736
H      6.737001    20.284002     6.608000     0.325379
H      5.359000    20.853002     5.890000     0.326746
N      2.754000    21.083002     7.798000    -0.643020
H      3.143000    20.391002     8.358001     0.314228
H      2.456000    21.894002     8.247000     0.322963
C      6.023000    15.831001     8.584001     0.437186
C      1.312000    22.944002     3.566000     0.437014
O      2.061000    24.056002     3.759001    -0.486232
O      7.375000    15.849001     8.485001    -0.498967
C      0.096000    21.846002    31.599002    -0.003313
C     -1.265000    21.732001    31.227002    -0.239844
C     -1.769000    20.601002    30.541002     0.260026
C     -0.868000    19.546001    30.218002    -0.039240
C      0.503000    19.678002    30.530002    -0.135710
C      0.976000    20.811002    31.211002    -0.191038
H      1.164000    18.930002    30.298002     0.119198
H      1.972000    20.860002    31.442002     0.108382
C     -1.309000    18.346002    29.599002    -0.036650
C     -1.060000    18.194001    28.218002    -0.130025
C     -1.628000    17.130001    27.503002    -0.185155
C     -2.464000    16.190001    28.148002    -0.003961
C     -2.683000    16.327001    29.537002    -0.251867
C     -2.106000    17.383001    30.284002     0.260980
H     -0.526000    18.901002    27.703002     0.121913
H     -1.503000    17.109001    26.488002     0.104699
H     -3.301000    15.659001    30.009003     0.137342
H     -1.924000    22.464002    31.509003     0.140568
N     -3.094000    20.568002    30.225002    -0.647373
H     -3.687000    21.306002    30.451002     0.324378
H     -3.484000    19.834001    29.724002     0.326321
N     -2.358000    17.455002    31.619003    -0.643259
H     -1.960000    18.142002    32.179002     0.315442
H     -2.902000    16.784001    32.069002     0.322200
C      0.523000    22.924002    32.431002     0.437740
C     -3.227000    15.264001    27.388002     0.435003
O     -4.567000    15.362001    27.565002    -0.486496
O     -0.183000    24.080002    32.361002    -0.501809
C     -1.682000    14.786001    19.675002    -0.005630
C     -0.903000    13.664001    19.307001    -0.238977
C      0.330000    13.792001    18.625001     0.261326
C      0.796000    15.099001    18.304001    -0.039839
C     -0.003000    16.222001    18.614001    -0.140404
C     -1.224000    16.066001    19.291002    -0.191757
H      0.315000    17.167002    18.382002     0.124775
H     -1.765000    16.905001    19.518002     0.108553
C      2.056000    15.314001    17.686001    -0.035561
C      2.065000    15.613001    16.307001    -0.136337
C      3.272000    15.648001    15.592001    -0.184439
C      4.501000    15.383001    16.237001    -0.005280
C      4.491000    15.117001    17.624001    -0.249337
C      3.287000    15.094001    18.370001     0.259321
H      1.187000    15.734001    15.793001     0.127024
H      3.229000    15.778001    14.578001     0.104944
H      5.376001    14.907001    18.095001     0.137858
H     -1.210000    12.728001    19.588001     0.140572
N      1.020000    12.660001    18.311001    -0.641725
H      0.676000    11.777001    18.536002     0.324201
H      1.852000    12.687001    17.811001     0.320012
N      3.349000    14.834001    19.705001    -0.641885
H      2.555000    14.839001    20.265001     0.314336
H      4.201000    14.690001    20.153002     0.322479
C     -2.835000    14.615001    20.499002     0.439111
C      5.682000    15.180001    15.475001     0.436249
O      6.282001    13.979001    15.658001    -0.485787
O     -3.490000    13.431001    20.411002    -0.500277
C     11.960001    10.287001     7.740000    -0.003626
C     11.382001     9.047001     7.376001    -0.240533
C     12.112001     8.045001     6.696000     0.260229
C     13.476001     8.300001     6.372001    -0.038665
C     14.044001     9.555001     6.679001    -0.141086
C     13.296001    10.534001     7.354001    -0.191821
H     15.022001     9.756001     6.446001     0.124925
H     13.749001    11.423001     7.582001     0.108486
C     14.296001     7.318001     5.755000    -0.038035
C     14.550001     7.453001     4.373000    -0.130626
C     15.189001     6.428001     3.660000    -0.187265
C     15.588001     5.237001     4.309000    -0.005175
C     15.360001     5.119000     5.698001    -0.251119
C     14.733001     6.148000     6.442001     0.261606
H     14.204001     8.267001     3.856000     0.121480
H     15.271001     6.524000     2.645000     0.108238
H     15.631001     4.251000     6.172001     0.137254
H     10.419001     8.841001     7.658001     0.140870
N     11.482001     6.877001     6.387001    -0.648485
H     10.547001     6.731001     6.614001     0.324995
H     11.924001     6.170000     5.889000     0.326748
N     14.546001     5.970000     7.779001    -0.645236
H     14.151001     6.659000     8.338000     0.315591
H     14.856001     5.164001     8.230001     0.323047
C     11.236001    11.198001     8.566001     0.438200
C     16.018001     4.114000     3.552000     0.437743
O     15.270001     2.998000     3.726001    -0.485793
O      9.882001    11.164001     8.484001    -0.501031
C     17.172001     5.225000    31.613002    -0.004518
C     18.533001     5.337000    31.242002    -0.239087
C     19.039002     6.469000    30.559002     0.259589
C     18.139001     7.527001    30.242002    -0.039015
C     16.769002     7.399001    30.558002    -0.135812
C     16.293001     6.265000    31.235003    -0.192139
H     16.109001     8.149000    30.329002     0.119502
H     15.298001     6.216001    31.466002     0.108439
C     18.582001     8.722000    29.618002    -0.037650
C     18.329001     8.870001    28.237002    -0.135755
C     18.906001     9.924001    27.514002    -0.183808
C     19.753001    10.859001    28.152002    -0.006202
C     19.978002    10.726001    29.540002    -0.250871
C     19.392001     9.680001    30.295002     0.261721
H     17.784002     8.167000    27.728002     0.126956
H     18.773002     9.944001    26.500002     0.104582
H     20.605002    11.389001    30.007002     0.138182
H     19.191001     4.602001    31.519002     0.140386
N     20.363001     6.498000    30.241002    -0.647685
H     20.954001     5.758000    30.464002     0.325309
H     20.755002     7.232000    29.741002     0.326671
N     19.650002     9.611001    31.629002    -0.644795
H     19.247002     8.931001    32.194002     0.315469
H     20.204002    10.277001    32.073002     0.323873
C     16.746001     4.137000    32.432003     0.438014
C     20.523001    11.772001    27.383002     0.437026
O     21.862002    11.691001    27.570002    -0.487092
O     17.442001     2.978000    32.331003    -0.498899
C     18.963002    12.251001    19.687001    -0.003416
C     18.176001    13.372001    19.329001    -0.240095
C     16.943001    13.241001    18.647001     0.260700
C     16.484001    11.934001    18.318001    -0.038171
C     17.289001    10.813001    18.622001    -0.141749
C     18.510002    10.971001    19.298002    -0.191605
H     16.975001     9.867001    18.385001     0.124673
H     19.055001    10.134001    19.520001     0.108384
C     15.228001    11.715001    17.695001    -0.038509
C     15.227001    11.432001    16.312001    -0.130524
C     14.024001    11.397001    15.592001    -0.183385
C     12.790001    11.649001    16.232001    -0.004218
C     12.792001    11.898001    17.623002    -0.252051
C     13.992001    11.922001    18.375002     0.261716
H     16.108001    11.326001    15.800001     0.122088
H     14.073001    11.285001    14.575001     0.104395
H     11.903001    12.099001    18.092001     0.137362
H     18.479001    14.308001    19.613002     0.140705
N     16.247001    14.371001    18.341001    -0.641179
H     16.587001    15.254001    18.571001     0.324720
H     15.414001    14.343001    17.842002     0.319246
N     13.923001    12.169001    19.712002    -0.645701
H     14.714001    12.164001    20.275001     0.316635
H     13.068001    12.304001    20.158001     0.322647
C     20.119001    12.422001    20.507002     0.438356
C     11.610001    11.851001    15.468001     0.434029
O     11.028001    13.061001    15.646001    -0.485511
O     20.762002    13.613001    20.425001    -0.499861
